#======================================================================

# CRYSTAL DATA

#----------------------------------------------------------------------

data_VESTA_phase_1


_chemical_name_common                  ''
_cell_length_a                         8.24900
_cell_length_b                         4.90600
_cell_length_c                         5.84700
_cell_angle_alpha                      90
_cell_angle_beta                       114.55300
_cell_angle_gamma                      90
_space_group_name_H-M_alt              'C 2/c'
_space_group_IT_number                 15

loop_
_space_group_symop_operation_xyz
   'x, y, z'
   '-x, -y, -z'
   '-x, y, -z+1/2'
   'x, -y, z+1/2'
   'x+1/2, y+1/2, z'
   '-x+1/2, -y+1/2, -z'
   '-x+1/2, y+1/2, -z+1/2'
   'x+1/2, -y+1/2, z+1/2'

loop_
   _atom_site_label
   _atom_site_occupancy
   _atom_site_fract_x
   _atom_site_fract_y
   _atom_site_fract_z
   _atom_site_adp_type
   _atom_site_B_iso_or_equiv
   _atom_site_type_symbol
   Li         1.0     0.194400      0.444100      0.832000     Biso  1.000000 Li
   C          1.0     0.000000      0.067900      0.250000     Biso  1.000000 C
   O1         1.0     0.000000      0.327300      0.250000     Biso  1.000000 O
   O2         1.0     0.147400     -0.064800      0.310800     Biso  1.000000 O
