#======================================================================

# CRYSTAL DATA

#----------------------------------------------------------------------

data_VESTA_phase_1


_chemical_name_common                  ''
_cell_length_a                         13.06600
_cell_length_b                         8.01500
_cell_length_c                         6.10100
_cell_angle_alpha                      90
_cell_angle_beta                       90
_cell_angle_gamma                      90
_space_group_name_H-M_alt              'P 1'
_space_group_IT_number                 1

loop_
_space_group_symop_operation_xyz
   'x, y, z'

loop_
_atom_type_symbol
_atom_type_oxidation_number
Li	1
P	5
S	-2
loop_
   _atom_site_label
   _atom_site_occupancy
   _atom_site_fract_x
   _atom_site_fract_y
   _atom_site_fract_z
   _atom_site_adp_type
   _atom_site_B_iso_or_equiv
   _atom_site_type_symbol
   Li1        1.0     0.500000      0.000000      0.000000     Biso  1.000000 Li
   Li2        1.0     0.000000      0.500000      0.500000     Biso  1.000000 Li
   Li3        1.0     0.500000      0.500000     -0.000000     Biso  1.000000 Li
   Li4        1.0     0.832000      0.033000      0.114000     Biso  1.000000 Li
   Li5        1.0     0.332000      0.467000      0.386000     Biso  1.000000 Li
   Li6        1.0     0.168000      0.533000      0.886000     Biso  1.000000 Li
   Li7        1.0     0.668000      0.967000      0.614000     Biso  1.000000 Li
   Li8        1.0     0.168000      0.967000      0.886000     Biso  1.000000 Li
   Li9        1.0     0.668000      0.533000      0.614000     Biso  1.000000 Li
   Li10       1.0     0.832000      0.467000      0.114000     Biso  1.000000 Li
   Li11       1.0     0.332000      0.033000      0.386000     Biso  1.000000 Li
   Li12       1.0     0.074000      0.750000      0.306000     Biso  1.000000 Li
   P1         1.0     0.587400      0.250000      0.342400     Biso  1.000000 P
   P2         1.0     0.087400      0.250000      0.157600     Biso  1.000000 P
   P3         1.0     0.412600      0.750000      0.657600     Biso  1.000000 P
   P4         1.0     0.912600      0.750000      0.842400     Biso  1.000000 P
   S1         1.0     0.653200      0.036700      0.221600     Biso  1.000000 S
   S2         1.0     0.153200      0.463300      0.278400     Biso  1.000000 S
   S3         1.0     0.346800      0.536700      0.778400     Biso  1.000000 S
   S4         1.0     0.846800      0.963300      0.721600     Biso  1.000000 S
   S5         1.0     0.346800      0.963300      0.778400     Biso  1.000000 S
   S6         1.0     0.846800      0.536700      0.721600     Biso  1.000000 S
   S7         1.0     0.653200      0.463300      0.221600     Biso  1.000000 S
   S8         1.0     0.153200      0.036700      0.278400     Biso  1.000000 S
   S9         1.0     0.437600      0.250000      0.232600     Biso  1.000000 S
   S10        1.0     0.937600      0.250000      0.267400     Biso  1.000000 S
   S11        1.0     0.562400      0.750000      0.767400     Biso  1.000000 S
   S12        1.0     0.062400      0.750000      0.732600     Biso  1.000000 S
   S13        1.0     0.601200      0.250000      0.675800     Biso  1.000000 S
   S14        1.0     0.101200      0.250000      0.824200     Biso  1.000000 S
   S15        1.0     0.398800      0.750000      0.324200     Biso  1.000000 S
   S16        1.0     0.898800      0.750000      0.175800     Biso  1.000000 S
