#======================================================================

# CRYSTAL DATA

#----------------------------------------------------------------------

data_VESTA_phase_1


_chemical_name_common                  'Li12 P4 S16                           '
_cell_length_a                         13.01255
_cell_length_b                         8.18685
_cell_length_c                         6.25539
_cell_angle_alpha                      90.02560
_cell_angle_beta                       90.00453
_cell_angle_gamma                      90.00835
_space_group_name_H-M_alt              'P 1'
_space_group_IT_number                 1

loop_
_space_group_symop_operation_xyz
   'x, y, z'

loop_
   _atom_site_label
   _atom_site_occupancy
   _atom_site_fract_x
   _atom_site_fract_y
   _atom_site_fract_z
   _atom_site_adp_type
   _atom_site_B_iso_or_equiv
   _atom_site_type_symbol
   Li1        1.0     0.509657      0.046248     -0.076221     Biso  1.000000 Li
   Li2        1.0     0.009450      0.438192      0.562613     Biso  1.000000 Li
   Li3        1.0     0.494723      0.545587      0.064547     Biso  1.000000 Li
   Li4        1.0     0.832283      0.033122      0.072205     Biso  1.000000 Li
   Li5        1.0     0.331961      0.450222      0.417815     Biso  1.000000 Li
   Li6        1.0     0.172084      0.534436      0.916802     Biso  1.000000 Li
   Li7        1.0     0.672676      0.951149      0.571953     Biso  1.000000 Li
   Li8        1.0     0.165833      0.965980      0.867683     Biso  1.000000 Li
   Li9        1.0     0.665591      0.518453      0.619391     Biso  1.000000 Li
   Li10       1.0     0.839037      0.466042      0.118649     Biso  1.000000 Li
   Li11       1.0     0.338890      0.017786      0.367510     Biso  1.000000 Li
   Li12       1.0    -0.004801      0.939425      0.425592     Biso  1.000000 Li
   P1         1.0     0.591326      0.242396      0.333470     Biso  1.000000 P
   P2         1.0     0.091316      0.241370      0.153943     Biso  1.000000 P
   P3         1.0     0.413161      0.743101      0.654834     Biso  1.000000 P
   P4         1.0     0.913500      0.741784      0.833165     Biso  1.000000 P
   S1         1.0     0.652617      0.035768      0.197425     Biso  1.000000 S
   S2         1.0     0.152719      0.447705      0.290582     Biso  1.000000 S
   S3         1.0     0.351739      0.536917      0.791748     Biso  1.000000 S
   S4         1.0     0.852087      0.948540      0.697710     Biso  1.000000 S
   S5         1.0     0.347998      0.958974      0.755717     Biso  1.000000 S
   S6         1.0     0.848062      0.526447      0.731018     Biso  1.000000 S
   S7         1.0     0.656725      0.457663      0.231505     Biso  1.000000 S
   S8         1.0     0.156553      0.025972      0.255706     Biso  1.000000 S
   S9         1.0     0.440260      0.249550      0.224764     Biso  1.000000 S
   S10        1.0     0.940368      0.234575      0.263348     Biso  1.000000 S
   S11        1.0     0.564230      0.749879      0.763190     Biso  1.000000 S
   S12        1.0     0.064377      0.734741      0.723626     Biso  1.000000 S
   S13        1.0     0.609562      0.231563      0.658584     Biso  1.000000 S
   S14        1.0     0.109510      0.252850      0.828966     Biso  1.000000 S
   S15        1.0     0.394778      0.730981      0.329854     Biso  1.000000 S
   S16        1.0     0.895729      0.752583      0.158304     Biso  1.000000 S
